testcases/gridlabd/R2-12.47-1/R2-12.47-1.glm
// $Id: R2-12.47-1.glm 
// 12.47 kV feeder 
//********************************************* 
clock{ 
     timezone EST+5EDT;
     timestamp '2000-01-01 0:00:00';
     stoptime '2000-01-01 1:00:00';

}

#set profiler=1
//*********************************************
// modules
module tape;
module powerflow{
     solver_method NR;
      default_maximum_voltage_error 1e-6;
};

//*********************************************
object regulator:1826 {
     name R2-12-47-1_reg_1;
     from R2-12-47-1_node_488;
     to R2-12-47-1_meter_83;
     phases ABCN;
     configuration feeder_reg_cfg;
}

object regulator_configuration:1827 {
     name feeder_reg_cfg;
     Control OUTPUT_VOLTAGE;
     band_center 7500.0;
     band_width 120;
     connect_type WYE_WYE;
     time_delay 30;
     raise_taps 16;
     lower_taps 16;
     regulation 0.10;
     tap_pos_A 0;
     tap_pos_B 0;
     tap_pos_C 0;
}

object capacitor:1824 {
     name R2-12-47-1_cap_1;
     phases ABCN;
     pt_phase B;
     parent R2-12-47-1_node_187;
     phases_connected ABC;
     control VOLT;
     voltage_set_high 7300;
     voltage_set_low 7100;
     capacitor_A 0.2 MVAr;
     capacitor_B 0.2 MVAr;
     capacitor_C 0.2 MVAr;
     switchA CLOSED;
     switchB CLOSED;
     switchC CLOSED;
     control_level INDIVIDUAL;
     time_delay 30.0;
     dwell_time 30.0;
     cap_nominal_voltage 7200;
     nominal_voltage 7200;
}

object fuse:1748 {
     name R2-12-47-1_fuse_1;
     phases CN;
     from R2-12-47-1_node_426;
     to R2-12-47-1_node_483;
     current_limit 50000;// 80;
     status CLOSED;
}

object fuse:1749 {
     name R2-12-47-1_fuse_2;
     phases ABCN;
     from R2-12-47-1_node_470;
     to R2-12-47-1_node_471;
     current_limit 50000;// 80;
     status CLOSED;
}

object fuse:1750 {
     name R2-12-47-1_fuse_3;
     phases ABCN;
     from R2-12-47-1_node_237;
     to R2-12-47-1_node_238;
     current_limit 50000;// 80;
     status CLOSED;
}

object fuse:1751 {
     name R2-12-47-1_fuse_4;
     phases ABCN;
     from R2-12-47-1_node_249;
     to R2-12-47-1_node_269;
     current_limit 50000;// 80;
     status CLOSED;
}

object fuse:1752 {
     name R2-12-47-1_fuse_5;
     phases AN;
     from R2-12-47-1_node_270;
     to R2-12-47-1_node_271;
     current_limit 50000;// 80;
     status CLOSED;
}

object fuse:1753 {
     name R2-12-47-1_fuse_6;
     phases BN;
     from R2-12-47-1_node_373;
     to R2-12-47-1_node_368;
     current_limit 50000;// 30;
     status CLOSED;
}

object fuse:1754 {
     name R2-12-47-1_fuse_7;
     phases ABCN;
     from R2-12-47-1_node_349;
     to R2-12-47-1_node_351;
     current_limit 50000;// 50;
     status CLOSED;
}

object fuse:1755 {
     name R2-12-47-1_fuse_8;
     phases AN;
     from R2-12-47-1_node_379;
     to R2-12-47-1_node_264;
     current_limit 50000;// 30;
     status CLOSED;
}

object fuse:1756 {
     name R2-12-47-1_fuse_9;
     phases ABCN;
     from R2-12-47-1_node_350;
     to R2-12-47-1_node_346;
     current_limit 50000;// 30;
     status CLOSED;
}

object fuse:1757 {
     name R2-12-47-1_fuse_10;
     phases ABCN;
     from R2-12-47-1_node_352;
     to R2-12-47-1_node_354;
     current_limit 50000;// 50;
     status CLOSED;
}

object fuse:1758 {
     name R2-12-47-1_fuse_11;
     phases AN;
     from R2-12-47-1_node_335;
     to R2-12-47-1_node_336;
     current_limit 50000;// 50;
     status CLOSED;
}

object fuse:1759 {
     name R2-12-47-1_fuse_12;
     phases AN;
     from R2-12-47-1_node_353;
     to R2-12-47-1_node_347;
     current_limit 50000;// 30;
     status CLOSED;
}

object fuse:1760 {
     name R2-12-47-1_fuse_13;
     phases BN;
     from R2-12-47-1_node_389;
     to R2-12-47-1_node_390;
     current_limit 50000;// 80;
     status CLOSED;
}

object fuse:1761 {
     name R2-12-47-1_fuse_14;
     phases BN;
     from R2-12-47-1_node_394;
     to R2-12-47-1_node_393;
     current_limit 50000;// 10;
     status CLOSED;
}

object fuse:1762 {
     name R2-12-47-1_fuse_15;
     phases BN;
     from R2-12-47-1_node_369;
     to R2-12-47-1_node_367;
     current_limit 50000;// 15;
     status CLOSED;
}

object fuse:1763 {
     name R2-12-47-1_fuse_16;
     phases BN;
     from R2-12-47-1_node_408;
     to R2-12-47-1_node_409;
     current_limit 50000;// 30;
     status CLOSED;
}

object fuse:1764 {
     name R2-12-47-1_fuse_17;
     phases BN;
     from R2-12-47-1_node_378;
     to R2-12-47-1_node_268;
     current_limit 50000;// 50;
     status CLOSED;
}

object fuse:1765 {
     name R2-12-47-1_fuse_18;
     phases ABCN;
     from R2-12-47-1_node_267;
     to R2-12-47-1_node_405;
     current_limit 50000;// 50;
     status CLOSED;
}

object fuse:1766 {
     name R2-12-47-1_fuse_19;
     phases ABCN;
     from R2-12-47-1_node_28;
     to R2-12-47-1_node_281;
     current_limit 50000;// 30;
     status CLOSED;
}

object fuse:1767 {
     name R2-12-47-1_fuse_20;
     phases ABCN;
     from R2-12-47-1_node_285;
     to R2-12-47-1_node_286;
     current_limit 50000;// 80;
     status CLOSED;
}

object fuse:1768 {
     name R2-12-47-1_fuse_21;
     phases ABCN;
     from R2-12-47-1_node_32;
     to R2-12-47-1_node_291;
     current_limit 50000;// 20;
     status CLOSED;
}

object fuse:1769 {
     name R2-12-47-1_fuse_22;
     phases AN;
     from R2-12-47-1_node_302;
     to R2-12-47-1_node_304;
     current_limit 50000;// 30;
     status CLOSED;
}

object fuse:1770 {
     name R2-12-47-1_fuse_23;
     phases AN;
     from R2-12-47-1_node_13;
     to R2-12-47-1_node_12;
     current_limit 50000;// 30;
     status CLOSED;
}

object fuse:1771 {
     name R2-12-47-1_fuse_24;
     phases ABCN;
     from R2-12-47-1_node_25;
     to R2-12-47-1_node_24;
     current_limit 50000;// 25;
     status CLOSED;
}

object fuse:1772 {
     name R2-12-47-1_fuse_25;
     phases ABCN;
     from R2-12-47-1_node_33;
     to R2-12-47-1_node_34;
     current_limit 50000;// 30;
     status CLOSED;
}

object fuse:1773 {
     name R2-12-47-1_fuse_26;
     phases ABCN;
     from R2-12-47-1_node_129;
     to R2-12-47-1_node_132;
     current_limit 50000;// 40;
     status CLOSED;
}

object fuse:1774 {
     name R2-12-47-1_fuse_27;
     phases ABCN;
     from R2-12-47-1_node_178;
     to R2-12-47-1_node_172;
     current_limit 50000;// 50;
     status CLOSED;
}

object fuse:1775 {
     name R2-12-47-1_fuse_28;
     phases ABCN;
     from R2-12-47-1_node_178;
     to R2-12-47-1_node_171;
     current_limit 50000;// 65;
     status CLOSED;
}

object fuse:1776 {
     name R2-12-47-1_fuse_29;
     phases ABCN;
     from R2-12-47-1_node_278;
     to R2-12-47-1_node_176;
     current_limit 50000;// 80;
     status CLOSED;
}

object fuse:1777 {
     name R2-12-47-1_fuse_30;
     phases ABCN;
     from R2-12-47-1_node_222;
     to R2-12-47-1_node_224;
     current_limit 50000;// 40;
     status CLOSED;
}

object fuse:1778 {
     name R2-12-47-1_fuse_31;
     phases ABCN;
     from R2-12-47-1_node_137;
     to R2-12-47-1_node_233;
     current_limit 50000;// 10;
     status CLOSED;
}

object fuse:1779 {
     name R2-12-47-1_fuse_32;
     phases ABCN;
     from R2-12-47-1_node_444;
     to R2-12-47-1_node_446;
     current_limit 50000;// 80;
     status CLOSED;
}

object fuse:1780 {
     name R2-12-47-1_fuse_33;
     phases ABCN;
     from R2-12-47-1_node_454;
     to R2-12-47-1_node_455;
     current_limit 50000;// 80;
     status CLOSED;
}

object fuse:1781 {
     name R2-12-47-1_fuse_34;
     phases ABCN;
     from R2-12-47-1_node_439;
     to R2-12-47-1_node_460;
     current_limit 50000;// 65;
     status CLOSED;
}

object fuse:1782 {
     name R2-12-47-1_fuse_35;
     phases ABCN;
     from R2-12-47-1_node_463;
     to R2-12-47-1_node_464;
     current_limit 50000;// 125;
     status CLOSED;
}

object line_configuration:31 {
     conductor_A underground_line_conductor:2;
     conductor_B underground_line_conductor:2;
     conductor_C underground_line_conductor:2;
     conductor_N underground_line_conductor:2;
     spacing line_spacing:21;
}

object line_configuration:32 {
     conductor_B underground_line_conductor:3;
     conductor_N underground_line_conductor:3;
     spacing line_spacing:22;
}

object line_configuration:33 {
     conductor_A overhead_line_conductor:4;
     conductor_B overhead_line_conductor:4;
     conductor_C overhead_line_conductor:4;
     conductor_N overhead_line_conductor:4;
     spacing line_spacing:23;
}

object line_configuration:34 {
     conductor_C underground_line_conductor:3;
     conductor_N underground_line_conductor:3;
     spacing line_spacing:24;
}

object line_configuration:35 {
     conductor_A underground_line_conductor:3;
     conductor_N underground_line_conductor:3;
     spacing line_spacing:25;
}

object line_configuration:36 {
     conductor_A underground_line_conductor:3;
     conductor_B underground_line_conductor:3;
     conductor_C underground_line_conductor:3;
     conductor_N underground_line_conductor:3;
     spacing line_spacing:21;
}

object line_configuration:37 {
     conductor_B overhead_line_conductor:5;
     conductor_N overhead_line_conductor:5;
     spacing line_spacing:26;
}

object line_configuration:38 {
     conductor_A overhead_line_conductor:6;
     conductor_B overhead_line_conductor:6;
     conductor_C overhead_line_conductor:6;
     conductor_N overhead_line_conductor:6;
     spacing line_spacing:23;
}

object line_configuration:39 {
     conductor_A overhead_line_conductor:6;
     conductor_N overhead_line_conductor:6;
     spacing line_spacing:27;
}

object line_configuration:40 {
     conductor_A underground_line_conductor:7;
     conductor_B underground_line_conductor:7;
     conductor_C underground_line_conductor:7;
     conductor_N underground_line_conductor:7;
     spacing line_spacing:21;
}

object line_configuration:41 {
     conductor_B overhead_line_conductor:6;
     conductor_N overhead_line_conductor:6;
     spacing line_spacing:26;
}

object line_configuration:42 {
     conductor_A underground_line_conductor:8;
     conductor_B underground_line_conductor:8;
     conductor_C underground_line_conductor:8;
     conductor_N underground_line_conductor:8;
     spacing line_spacing:23;
}

object line_configuration:43 {
     conductor_A overhead_line_conductor:5;
     conductor_B overhead_line_conductor:5;
     conductor_C overhead_line_conductor:5;
     conductor_N overhead_line_conductor:5;
     spacing line_spacing:23;
}

object line_configuration:44 {
     conductor_A overhead_line_conductor:4;
     conductor_N overhead_line_conductor:4;
     spacing line_spacing:27;
}

object line_configuration:45 {
     conductor_A underground_line_conductor:9;
     conductor_B underground_line_conductor:9;
     conductor_C underground_line_conductor:9;
     conductor_N underground_line_conductor:9;
     spacing line_spacing:23;
}

object line_configuration:46 {
     conductor_A underground_line_conductor:9;
     conductor_B underground_line_conductor:9;
     conductor_C underground_line_conductor:9;
     conductor_N underground_line_conductor:9;
     spacing line_spacing:21;
}

object line_configuration:47 {
     conductor_A overhead_line_conductor:10;
     conductor_B overhead_line_conductor:10;
     conductor_C overhead_line_conductor:10;
     conductor_N overhead_line_conductor:10;
     spacing line_spacing:23;
}

object line_configuration:48 {
     conductor_A overhead_line_conductor:5;
     conductor_N overhead_line_conductor:5;
     spacing line_spacing:27;
}

object line_configuration:49 {
     conductor_A overhead_line_conductor:11;
     conductor_B overhead_line_conductor:11;
     conductor_C overhead_line_conductor:11;
     conductor_N overhead_line_conductor:11;
     spacing line_spacing:23;
}

object line_configuration:50 {
     conductor_B overhead_line_conductor:12;
     conductor_N overhead_line_conductor:12;
     spacing line_spacing:26;
}

object line_configuration:51 {
     conductor_C overhead_line_conductor:12;
     conductor_N overhead_line_conductor:12;
     spacing line_spacing:28;
}

object line_configuration:52 {
     conductor_B overhead_line_conductor:13;
     conductor_N overhead_line_conductor:13;
     spacing line_spacing:26;
}

object line_configuration:53 {
     conductor_A overhead_line_conductor:12;
     conductor_B overhead_line_conductor:12;
     conductor_C overhead_line_conductor:12;
     conductor_N overhead_line_conductor:12;
     spacing line_spacing:23;
}

object line_configuration:54 {
     conductor_A overhead_line_conductor:6;
     conductor_B overhead_line_conductor:6;
     conductor_C overhead_line_conductor:6;
     conductor_N overhead_line_conductor:6;
     spacing line_spacing:23;
}

object line_configuration:55 {
     conductor_B overhead_line_conductor:10;
     conductor_N overhead_line_conductor:10;
     spacing line_spacing:26;
}

object line_configuration:56 {
     conductor_A overhead_line_conductor:14;
     conductor_B overhead_line_conductor:14;
     conductor_C overhead_line_conductor:14;
     conductor_N overhead_line_conductor:14;
     spacing line_spacing:23;
}

object line_configuration:57 {
     conductor_A overhead_line_conductor:5;
     conductor_B overhead_line_conductor:5;
     conductor_N overhead_line_conductor:5;
     spacing line_spacing:29;
}

object line_configuration:58 {
     conductor_A overhead_line_conductor:15;
     conductor_B overhead_line_conductor:15;
     conductor_C overhead_line_conductor:15;
     conductor_N overhead_line_conductor:15;
     spacing line_spacing:23;
}

object line_configuration:59 {
     conductor_A underground_line_conductor:8;
     conductor_B underground_line_conductor:8;
     conductor_C underground_line_conductor:8;
     conductor_N underground_line_conductor:8;
     spacing line_spacing:21;
}

object line_configuration:60 {
     conductor_A underground_line_conductor:9;
     conductor_N underground_line_conductor:9;
     spacing line_spacing:25;
}

object line_configuration:61 {
     conductor_A overhead_line_conductor:13;
     conductor_N overhead_line_conductor:13;
     spacing line_spacing:27;
}

object line_configuration:62 {
     conductor_A overhead_line_conductor:13;
     conductor_B overhead_line_conductor:13;
     conductor_C overhead_line_conductor:13;
     conductor_N overhead_line_conductor:13;
     spacing line_spacing:23;
}

object line_configuration:63 {
     conductor_C overhead_line_conductor:16;
     conductor_N overhead_line_conductor:16;
     spacing line_spacing:28;
}

object line_configuration:64 {
     conductor_C overhead_line_conductor:6;
     conductor_N overhead_line_conductor:6;
     spacing line_spacing:28;
}

object line_configuration:65 {
     conductor_A overhead_line_conductor:15;
     conductor_B overhead_line_conductor:15;
     conductor_C overhead_line_conductor:15;
     conductor_N overhead_line_conductor:15;
     spacing line_spacing:23;
}

object line_configuration:66 {
     conductor_A overhead_line_conductor:6;
     conductor_B overhead_line_conductor:6;
     conductor_C overhead_line_conductor:6;
     conductor_N overhead_line_conductor:6;
     spacing line_spacing:23;
}

object line_configuration:67 {
     conductor_A overhead_line_conductor:17;
     conductor_B overhead_line_conductor:17;
     conductor_C overhead_line_conductor:17;
     conductor_N overhead_line_conductor:17;
     spacing line_spacing:23;
}

object line_configuration:68 {
     conductor_B overhead_line_conductor:5;
     conductor_C overhead_line_conductor:5;
     conductor_N overhead_line_conductor:5;
     spacing line_spacing:30;
}

object line_configuration:69 {
     conductor_A overhead_line_conductor:14;
     conductor_B overhead_line_conductor:14;
     conductor_N overhead_line_conductor:14;
     spacing line_spacing:29;
}

object line_configuration:70 {
     conductor_A overhead_line_conductor:5;
     conductor_B overhead_line_conductor:5;
     conductor_C overhead_line_conductor:5;
     conductor_N overhead_line_conductor:5;
     spacing line_spacing:23;
}

object line_configuration:71 {
     conductor_A overhead_line_conductor:5;
     conductor_B overhead_line_conductor:5;
     conductor_C overhead_line_conductor:5;
     conductor_N overhead_line_conductor:5;
     spacing line_spacing:23;
}

object line_spacing:21 {
     distance_AB 0.25;
     distance_BC 0.25;
     distance_AC 0.25;
     distance_AN 0.166667;
     distance_BN 0.166667;
     distance_CN 0.166667;
}

object line_spacing:22 {
     distance_BN 0.166667;
}

object line_spacing:23 {
     distance_AB 4;
     distance_BC 4;
     distance_AC 4;
     distance_AN 3;
     distance_BN 3;
     distance_CN 3;
}

object line_spacing:24 {
     distance_CN 0.166667;
}

object line_spacing:25 {
     distance_AN 0.166667;
}

object line_spacing:26 {
     distance_BN 3;
}

object line_spacing:27 {
     distance_AN 3;
}

object line_spacing:28 {
     distance_CN 3;
}

object line_spacing:29 {
     distance_AB 4;
     distance_AN 3;
     distance_BN 3;
}

object line_spacing:30 {
     distance_BC 4;
     distance_BN 3;
     distance_CN 3;
}

object load:559 {
     name R2-12-47-1_load_1;
     parent R2-12-47-1_meter_1;
     phases AN;
     voltage_A 7200+0.0j;
     constant_power_A 8659.8243+3206.4508j;
     nominal_voltage 277.128;
     load_class C;
}

object load:560 {
     name R2-12-47-1_load_2;
     parent R2-12-47-1_meter_2;
     phases BN;
     voltage_B -3600-6235j;
     constant_power_B 53310.5068+19719.9228j;
     nominal_voltage 277.128;
     load_class C;
}

object load:561 {
     name R2-12-47-1_load_3;
     parent R2-12-47-1_meter_3;
     phases AN;
     voltage_A 7200+0.0j;
     constant_power_A 5195.8946+1923.8705j;
     nominal_voltage 277.128;
     load_class C;
}

object load:562 {
     name R2-12-47-1_load_4;
     parent R2-12-47-1_meter_4;
     phases BN;
     voltage_B -3600-6235j;
     constant_power_B 7980.6148+2952.0843j;
     nominal_voltage 277.128;
     load_class C;
}

object load:563 {
     name R2-12-47-1_load_5;
     parent R2-12-47-1_meter_5;
     phases ABCN;
     voltage_A 7200+0.0j;
     voltage_B -3600-6235j;
     voltage_C -3600+6235j;
     constant_power_A 8659.8243+3206.4508j;
     constant_power_B 7980.6148+2952.0843j;
     constant_power_C 8881.8846+3264.8902j;
     nominal_voltage 277.128;
     load_class A;
}

object load:564 {
     name R2-12-47-1_load_6;
     parent R2-12-47-1_meter_6;
     phases ABCN;
     voltage_A 7200+0.0j;
     voltage_B -3600-6235j;
     voltage_C -3600+6235j;
     constant_power_A 17319.6486+6412.9016j;
     constant_power_B 15961.2296+5904.1685j;
     constant_power_C 17763.7693+6529.7804j;
     nominal_voltage 277.128;
     load_class C;
}

object load:565 {
     name R2-12-47-1_load_7;
     parent R2-12-47-1_meter_7;
     phases ABCN;
     voltage_A 7200+0.0j;
     voltage_B -3600-6235j;
     voltage_C -3600+6235j;
     constant_power_A 34639.2972+12825.8031j;
     constant_power_B 31922.4591+11808.337j;
     constant_power_C 35527.5385+13059.5609j;
     nominal_voltage 277.128;
     load_class C;
}

object load:566 {
     name R2-12-47-1_load_8;
     parent R2-12-47-1_meter_8;
     phases ABCN;
     voltage_A 7200+0.0j;
     voltage_B -3600-6235j;
     voltage_C -3600+6235j;
     constant_power_A 5195.8946+1923.8705j;
     constant_power_B 4788.3689+1771.2506j;
     constant_power_C 5329.1308+1958.9341j;
     nominal_voltage 277.128;
     load_class C;
}

object load:567 {
     name R2-12-47-1_load_9;
     parent R2-12-47-1_meter_9;
     phases ABCN;
     voltage_A 7200+0.0j;
     voltage_B -3600-6235j;
     voltage_C -3600+6235j;
     constant_power_A 173196.4861+64129.0156j;
     constant_power_B 159612.2957+59041.6851j;
     constant_power_C 177637.6925+65297.8043j;
     nominal_voltage 277.128;
     load_class C;
}

object load:568 {
     name R2-12-47-1_load_10;
     parent R2-12-47-1_meter_10;
     phases ABCN;
     voltage_A 7200+0.0j;
     voltage_B -3600-6235j;
     voltage_C -3600+6235j;
     constant_power_A 25979.4729+9619.3523j;
     constant_power_B 23941.8444+8856.2528j;
     constant_power_C 26645.6539+9794.6706j;
     nominal_voltage 277.128;
     load_class C;
}

object load:569 {
     name R2-12-47-1_load_11;
     parent R2-12-47-1_meter_11;
     phases ABCN;
     voltage_A 7200+0.0j;
     voltage_B -3600-6235j;
     voltage_C -3600+6235j;
     constant_power_A 57732.162+21376.3385j;
     constant_power_B 53204.0986+19680.5617j;
     constant_power_C 59212.5642+21765.9348j;
     nominal_voltage 277.128;
     load_class C;
}

object load:570 {
     name R2-12-47-1_load_12;
     parent R2-12-47-1_meter_12;
     phases ABCN;
     voltage_A 7200+0.0j;
     voltage_B -3600-6235j;
     voltage_C -3600+6235j;
     constant_power_A 57732.162+21376.3385j;
     constant_power_B 53204.0986+19680.5617j;
     constant_power_C 59212.5642+21765.9348j;
     nominal_voltage 277.128;
     load_class C;
}

object load:571 {
     name R2-12-47-1_load_13;
     parent R2-12-47-1_meter_13;
     phases ABCN;
     voltage_A 7200+0.0j;
     voltage_B -3600-6235j;
     voltage_C -3600+6235j;
     constant_power_A 8659.8243+3206.4508j;
     constant_power_B 7980.6148+2952.0843j;
     constant_power_C 8881.8846+3264.8902j;
     nominal_voltage 277.128;
     load_class C;
}

object load:572 {
     name R2-12-47-1_load_14;
     parent R2-12-47-1_meter_14;
     phases ABCN;
     voltage_A 7200+0.0j;
     voltage_B -3600-6235j;
     voltage_C -3600+6235j;
     constant_power_A 8659.8243+3206.4508j;
     constant_power_B 7980.6148+2952.0843j;
     constant_power_C 8881.8846+3264.8902j;
     nominal_voltage 277.128;
     load_class C;
}

object load:573 {
     name R2-12-47-1_load_15;
     parent R2-12-47-1_meter_15;
     phases ABCN;
     voltage_A 7200+0.0j;
     voltage_B -3600-6235j;
     voltage_C -3600+6235j;
     constant_power_A 5195.8946+1923.8705j;
     constant_power_B 4788.3689+1771.2506j;
     constant_power_C 5329.1308+1958.9341j;
     nominal_voltage 277.128;
     load_class C;
}

object load:574 {
     name R2-12-47-1_load_16;
     parent R2-12-47-1_meter_16;
     phases ABCN;
     voltage_A 7200+0.0j;
     voltage_B -3600-6235j;
     voltage_C -3600+6235j;
     constant_power_A 0+0j;
     constant_power_B 0+0j;
     constant_power_C 17763.7693+6529.7804j;
     nominal_voltage 277.128;
     load_class C;
}

object load:575 {
     name R2-12-47-1_load_17;
     parent R2-12-47-1_meter_17;
     phases ABCN;
     voltage_A 7200+0.0j;
     voltage_B -3600-6235j;
     voltage_C -3600+6235j;
     constant_power_A 5195.8946+1923.8705j;
     constant_power_B 4788.3689+1771.2506j;
     constant_power_C 5329.1308+1958.9341j;
     nominal_voltage 277.128;
     load_class C;
}

object load:576 {
     name R2-12-47-1_load_18;
     parent R2-12-47-1_meter_18;
     phases ABCN;
     voltage_A 7200+0.0j;
     voltage_B -3600-6235j;
     voltage_C -3600+6235j;
     constant_power_A 86598.2431+32064.5078j;
     constant_power_B 79806.1478+29520.8425j;
     constant_power_C 88818.8463+32648.9022j;
     nominal_voltage 277.128;
     load_class C;
}

object load:577 {
     name R2-12-47-1_load_19;
     parent R2-12-47-1_meter_19;
     phases ABCN;
     voltage_A 7200+0.0j;
     voltage_B -3600-6235j;
     voltage_C -3600+6235j;
     constant_power_A 86598.2431+32064.5078j;
     constant_power_B 79806.1478+29520.8425j;
     constant_power_C 88818.8463+32648.9022j;
     nominal_voltage 277.128;
     load_class C;
}

object load:578 {
     name R2-12-47-1_load_20;
     parent R2-12-47-1_meter_20;
     phases ABCN;
     voltage_A 7200+0.0j;
     voltage_B -3600-6235j;
     voltage_C -3600+6235j;
     constant_power_A 25979.4729+9619.3523j;
     constant_power_B 23941.8444+8856.2528j;
     constant_power_C 26645.6539+9794.6706j;
     nominal_voltage 277.128;
     load_class C;
}

object load:579 {
     name R2-12-47-1_load_21;
     parent R2-12-47-1_meter_21;
     phases ABCN;
     voltage_A 7200+0.0j;
     voltage_B -3600-6235j;
     voltage_C -3600+6235j;
     constant_power_A 8659.8243+3206.4508j;
     constant_power_B 7980.6148+2952.0843j;
     constant_power_C 8881.8846+3264.8902j;
     nominal_voltage 277.128;
     load_class C;
}

object load:580 {
     name R2-12-47-1_load_22;
     parent R2-12-47-1_meter_22;
     phases AN;
     voltage_A 7200+0.0j;
     constant_power_A 8659.8243+3206.4508j;
     nominal_voltage 277.128;
     load_class C;
}

object load:581 {
     name R2-12-47-1_load_23;
     parent R2-12-47-1_meter_23;
     phases AN;
     voltage_A 7200+0.0j;
     constant_power_A 5195.8946+1923.8705j;
     nominal_voltage 277.128;
     load_class C;
}

object load:582 {
     name R2-12-47-1_load_24;
     parent R2-12-47-1_meter_24;
     phases ABCN;
     voltage_A 7200+0.0j;
     voltage_B -3600-6235j;
     voltage_C -3600+6235j;
     constant_power_A 12989.7365+4809.6762j;
     constant_power_B 7980.6148+2952.0843j;
     constant_power_C 8881.8846+3264.8902j;
     nominal_voltage 277.128;
     load_class C;
}

object load:583 {
     name R2-12-47-1_load_25;
     parent R2-12-47-1_meter_25;
     phases ABCN;
     voltage_A 7200+0.0j;
     voltage_B -3600-6235j;
     voltage_C -3600+6235j;
     constant_power_A 5195.8946+1923.8705j;
     constant_power_B 0+0j;
     constant_power_C 0+0j;
     nominal_voltage 277.128;
     load_class C;
}

object load:584 {
     name R2-12-47-1_load_26;
     parent R2-12-47-1_meter_26;
     phases ABCN;
     voltage_A 7200+0.0j;
     voltage_B -3600-6235j;
     voltage_C -3600+6235j;
     constant_power_A 34639.2972+12825.8031j;
     constant_power_B 31922.4591+11808.337j;
     constant_power_C 35527.5385+13059.5609j;
     nominal_voltage 277.128;
     load_class C;
}

object load:585 {
     name R2-12-47-1_load_27;
     parent R2-12-47-1_meter_27;
     phases ABCN;
     voltage_A 7200+0.0j;
     voltage_B -3600-6235j;
     voltage_C -3600+6235j;
     constant_power_A 8659.8243+3206.4508j;
     constant_power_B 7980.6148+2952.0843j;
     constant_power_C 8881.8846+3264.8902j;
     nominal_voltage 277.128;
     load_class C;
}

object load:586 {
     name R2-12-47-1_load_28;
     parent R2-12-47-1_meter_28;
     phases AN;
     voltage_A 7200+0.0j;
     constant_power_A 17319.6486+6412.9016j;
     nominal_voltage 277.128;
     load_class C;
}

object load:587 {
     name R2-12-47-1_load_29;
     parent R2-12-47-1_meter_29;
     phases AN;
     voltage_A 7200+0.0j;
     constant_power_A 25979.4729+9619.3523j;
     nominal_voltage 277.128;
     load_class C;
}

object load:588 {
     name R2-12-47-1_load_30;
     parent R2-12-47-1_meter_30;
     phases ABCN;
     voltage_A 7200+0.0j;
     voltage_B -3600-6235j;
     voltage_C -3600+6235j;
     constant_power_A 3463.9297+1282.5803j;
     constant_power_B 3192.2459+1180.8337j;
     constant_power_C 3552.7539+1305.9561j;
     nominal_voltage 277.128;
     load_class C;
}

object load:589 {
     name R2-12-47-1_load_31;
     parent R2-12-47-1_meter_31;
     phases ABCN;
     voltage_A 7200+0.0j;
     voltage_B -3600-6235j;
     voltage_C -3600+6235j;
     constant_power_A 17319.6486+6412.9016j;
     constant_power_B 15961.2296+5904.1685j;
     constant_power_C 17763.7693+6529.7804j;
     nominal_voltage 277.128;
     load_class C;
}

object load:590 {
     name R2-12-47-1_load_32;
     parent R2-12-47-1_meter_32;
     phases ABCN;
     voltage_A 7200+0.0j;
     voltage_B -3600-6235j;
     voltage_C -3600+6235j;
     constant_power_A 0+0j;
     constant_power_B 7980.6148+2952.0843j;
     constant_power_C 0+0j;
     nominal_voltage 277.128;
     load_class C;
}

object load:591 {
     name R2-12-47-1_load_33;
     parent R2-12-47-1_meter_33;
     phases ABCN;
     voltage_A 7200+0.0j;
     voltage_B -3600-6235j;
     voltage_C -3600+6235j;
     constant_power_A 8659.8243+3206.4508j;
     constant_power_B 7980.6148+2952.0843j;
     constant_power_C 8881.8846+3264.8902j;
     nominal_voltage 277.128;
     load_class C;
}

object load:592 {
     name R2-12-47-1_load_34;
     parent R2-12-47-1_meter_34;
     phases ABCN;
     voltage_A 7200+0.0j;
     voltage_B -3600-6235j;
     voltage_C -3600+6235j;
     constant_power_A 0+0j;
     constant_power_B 15961.2296+5904.1685j;
     constant_power_C 0+0j;
     nominal_voltage 277.128;
     load_class C;
}

object load:593 {
     name R2-12-47-1_load_35;
     parent R2-12-47-1_meter_35;
     phases ABCN;
     voltage_A 7200+0.0j;
     voltage_B -3600-6235j;
     voltage_C -3600+6235j;
     constant_power_A 25979.4729+9619.3523j;
     constant_power_B 23941.8444+8856.2528j;
     constant_power_C 26645.6539+9794.6706j;
     nominal_voltage 277.128;
     load_class C;
}

object load:594 {
     name R2-12-47-1_load_36;
     parent R2-12-47-1_meter_36;
     phases CN;
     voltage_C -3600+6235j;
     constant_power_C 8881.8846+3264.8902j;
     nominal_voltage 277.128;
     load_class C;
}

object load:595 {
     name R2-12-47-1_load_37;
     parent R2-12-47-1_meter_37;
     phases CN;
     voltage_C -3600+6235j;
     constant_power_C 17763.7693+6529.7804j;
     nominal_voltage 277.128;
     load_class C;
}

object load:596 {
     name R2-12-47-1_load_38;
     parent R2-12-47-1_meter_38;
     phases ABCN;
     voltage_A 7200+0.0j;
     voltage_B -3600-6235j;
     voltage_C -3600+6235j;
     constant_power_A 5195.8946+1923.8705j;
     constant_power_B 4788.3689+1771.2506j;
     constant_power_C 5329.1308+1958.9341j;
     nominal_voltage 277.128;
     load_class C;
}

object load:597 {
     name R2-12-47-1_load_39;
     parent R2-12-47-1_meter_39;
     phases ABCN;
     voltage_A 7200+0.0j;
     voltage_B -3600-6235j;
     voltage_C -3600+6235j;
     constant_power_A 8659.8243+3206.4508j;
     constant_power_B 7980.6148+2952.0843j;
     constant_power_C 8881.8846+3264.8902j;
     nominal_voltage 277.128;
     load_class C;
}

object load:598 {
     name R2-12-47-1_load_40;
     parent R2-12-47-1_meter_40;
     phases ABCN;
     voltage_A 7200+0.0j;
     voltage_B -3600-6235j;
     voltage_C -3600+6235j;
     constant_power_A 8659.8243+3206.4508j;
     constant_power_B 7980.6148+2952.0843j;
     constant_power_C 8881.8846+3264.8902j;
     nominal_voltage 277.128;
     load_class C;
}

object load:599 {
     name R2-12-47-1_load_41;
     parent R2-12-47-1_meter_41;
     phases ABCN;
     voltage_A 7200+0.0j;
     voltage_B -3600-6235j;
     voltage_C -3600+6235j;
     constant_power_A 3463.9297+1282.5803j;
     constant_power_B 3192.2459+1180.8337j;
     constant_power_C 3552.7539+1305.9561j;
     nominal_voltage 277.128;
     load_class C;
}

object load:600 {
     name R2-12-47-1_load_42;
     parent R2-12-47-1_meter_42;
     phases ABCN;
     voltage_A 7200+0.0j;
     voltage_B -3600-6235j;
     voltage_C -3600+6235j;
     constant_power_A 17319.6486+6412.9016j;
     constant_power_B 15961.2296+5904.1685j;
     constant_power_C 0+0j;
     nominal_voltage 277.128;
     load_class C;
}

object load:601 {
     name R2-12-47-1_load_43;
     parent R2-12-47-1_meter_43;
     phases ABCN;
     voltage_A 7200+0.0j;
     voltage_B -3600-6235j;
     voltage_C -3600+6235j;
     constant_power_A 3463.9297+1282.5803j;
     constant_power_B 3192.2459+1180.8337j;
     constant_power_C 8881.8846+3264.8902j;
     nominal_voltage 277.128;
     load_class C;
}

object load:602 {
     name R2-12-47-1_load_44;
     parent R2-12-47-1_meter_44;
     phases ABCN;
     voltage_A 7200+0.0j;
     voltage_B -3600-6235j;
     voltage_C -3600+6235j;
     constant_power_A 8659.8243+3206.4508j;
     constant_power_B 7980.6148+2952.0843j;
     constant_power_C 8881.8846+3264.8902j;
     nominal_voltage 277.128;
     load_class C;
}

object load:603 {
     name R2-12-47-1_load_45;
     parent R2-12-47-1_meter_45;
     phases ABCN;
     voltage_A 7200+0.0j;
     voltage_B -3600-6235j;
     voltage_C -3600+6235j;
     constant_power_A 8659.8243+3206.4508j;
     constant_power_B 7980.6148+2952.0843j;
     constant_power_C 8881.8846+3264.8902j;
     nominal_voltage 277.128;
     load_class C;
}

object load:604 {
     name R2-12-47-1_load_46;
     parent R2-12-47-1_meter_46;
     phases ABCN;
     voltage_A 7200+0.0j;
     voltage_B -3600-6235j;
     voltage_C -3600+6235j;
     constant_power_A 8659.8243+3206.4508j;
     constant_power_B 7980.6148+2952.0843j;
     constant_power_C 8881.8846+3264.8902j;
     nominal_voltage 277.128;
     load_class C;
}

object load:605 {
     name R2-12-47-1_load_47;
     parent R2-12-47-1_meter_47;
     phases ABCN;
     voltage_A 7200+0.0j;
     voltage_B -3600-6235j;
     voltage_C -3600+6235j;
     constant_power_A 8659.8243+3206.4508j;
     constant_power_B 7980.6148+2952.0843j;
     constant_power_C 8881.8846+3264.8902j;
     nominal_voltage 277.128;
     load_class C;
}

object load:606 {
     name R2-12-47-1_load_48;
     parent R2-12-47-1_meter_48;
     phases CN;
     voltage_C -3600+6235j;
     constant_power_C 8881.8846+3264.8902j;
     nominal_voltage 277.128;
     load_class C;
}

object load:607 {
     name R2-12-47-1_load_49;
     parent R2-12-47-1_meter_49;
     phases ABCN;
     voltage_A 7200+0.0j;
     voltage_B -3600-6235j;
     voltage_C -3600+6235j;
     constant_power_A 0+0j;
     constant_power_B 15961.2296+5904.1685j;
     constant_power_C 0+0j;
     nominal_voltage 277.128;
     load_class C;
}

object load:608 {
     name R2-12-47-1_load_50;
     parent R2-12-47-1_meter_50;
     phases ABCN;
     voltage_A 7200+0.0j;
     voltage_B -3600-6235j;
     voltage_C -3600+6235j;
     constant_power_A 5195.8946+1923.8705j;
     constant_power_B 4788.3689+1771.2506j;
     constant_power_C 5329.1308+1958.9341j;
     nominal_voltage 277.128;
     load_class C;
}

object load:609 {
     name R2-12-47-1_load_51;
     parent R2-12-47-1_meter_51;
     phases ABCN;
     voltage_A 7200+0.0j;
     voltage_B -3600-6235j;
     voltage_C -3600+6235j;
     constant_power_A 17319.6486+6412.9016j;
     constant_power_B 15961.2296+5904.1685j;
     constant_power_C 17763.7693+6529.7804j;
     nominal_voltage 277.128;
     load_class C;
}

object load:610 {
     name R2-12-47-1_load_52;
     parent R2-12-47-1_meter_52;
     phases ABN;
     voltage_A 7200+0.0j;
     voltage_B -3600-6235j;
     constant_power_A 8659.8243+3206.4508j;
     constant_power_B 7980.6148+2952.0843j;
     nominal_voltage 277.128;
     load_class C;
}

object load:611 {
     name R2-12-47-1_load_53;
     parent R2-12-47-1_meter_53;
     phases ABCN;
     voltage_A 7200+0.0j;
     voltage_B -3600-6235j;
     voltage_C -3600+6235j;
     constant_power_A 0+0j;
     constant_power_B 7980.6148+2952.0843j;
     constant_power_C 0+0j;
     nominal_voltage 277.128;
     load_class C;
}

object load:612 {
     name R2-12-47-1_load_54;
     parent R2-12-47-1_meter_54;
     phases ABCN;
     voltage_A 7200+0.0j;
     voltage_B -3600-6235j;
     voltage_C -3600+6235j;
     constant_power_A 8659.8243+3206.4508j;
     constant_power_B 7980.6148+2952.0843j;
     constant_power_C 8881.8846+3264.8902j;
     nominal_voltage 277.128;
     load_class C;
}

object load:613 {
     name R2-12-47-1_load_55;
     parent R2-12-47-1_meter_55;
     phases ABCN;
     voltage_A 7200+0.0j;
     voltage_B -3600-6235j;
     voltage_C -3600+6235j;
     constant_power_A 5195.8946+1923.8705j;
     constant_power_B 4788.3689+1771.2506j;
     constant_power_C 5329.1308+1958.9341j;
     nominal_voltage 277.128;
     load_class C;
}

object load:614 {
     name R2-12-47-1_load_56;
     parent R2-12-47-1_meter_56;
     phases ABCN;
     voltage_A 7200+0.0j;
     voltage_B -3600-6235j;
     voltage_C -3600+6235j;
     constant_power_A 0+0j;
     constant_power_B 15961.2296+5904.1685j;
     constant_power_C 0+0j;
     nominal_voltage 277.128;
     load_class C;
}

object load:615 {
     name R2-12-47-1_load_57;
     parent R2-12-47-1_meter_57;
     phases ABCN;
     voltage_A 7200+0.0j;
     voltage_B -3600-6235j;
     voltage_C -3600+6235j;
     constant_power_A 25979.4729+9619.3523j;
     constant_power_B 23941.8444+8856.2528j;
     constant_power_C 26645.6539+9794.6706j;
     nominal_voltage 277.128;
     load_class C;
}

object load:616 {
     name R2-12-47-1_load_58;
     parent R2-12-47-1_meter_58;
     phases BCN;
     voltage_B -3600-6235j;
     voltage_C -3600+6235j;
     constant_power_B 15961.2296+5904.1685j;
     constant_power_C 17763.7693+6529.7804j;
     nominal_voltage 277.128;
     load_class C;
}

object load:617 {
     name R2-12-47-1_load_59;
     parent R2-12-47-1_meter_59;
     phases ABCN;
     voltage_A 7200+0.0j;
     voltage_B -3600-6235j;
     voltage_C -3600+6235j;
     constant_power_A 17319.6486+6412.9016j;
     constant_power_B 15961.2296+5904.1685j;
     constant_power_C 17763.7693+6529.7804j;
     nominal_voltage 277.128;
     load_class C;
}

object load:618 {
     name R2-12-47-1_load_60;
     parent R2-12-47-1_meter_60;
     phases ABCN;
     voltage_A 7200+0.0j;
     voltage_B -3600-6235j;
     voltage_C -3600+6235j;
     constant_power_A 0+0j;
     constant_power_B 15961.2296+5904.1685j;
     constant_power_C 17763.7693+6529.7804j;
     nominal_voltage 277.128;
     load_class C;
}

object load:619 {
     name R2-12-47-1_load_61;
     parent R2-12-47-1_meter_61;
     phases CN;
     voltage_C -3600+6235j;
     constant_power_C 59330.9893+21809.4666j;
     nominal_voltage 277.128;
     load_class C;
}

object load:620 {
     name R2-12-47-1_load_62;
     parent R2-12-47-1_meter_62;
     phases ABCN;
     voltage_A 7200+0.0j;
     voltage_B -3600-6235j;
     voltage_C -3600+6235j;
     constant_power_A 8659.8243+3206.4508j;
     constant_power_B 7980.6148+2952.0843j;
     constant_power_C 8881.8846+3264.8902j;
     nominal_voltage 277.128;
     load_class A;
}

object load:621 {
     name R2-12-47-1_load_63;
     parent R2-12-47-1_meter_63;
     phases ABCN;
     voltage_A 7200+0.0j;
     voltage_B -3600-6235j;
     voltage_C -3600+6235j;
     constant_power_A 34639.2972+12825.8031j;
     constant_power_B 31922.4591+11808.337j;
     constant_power_C 35527.5385+13059.5609j;
     nominal_voltage 277.128;
     load_class C;
}

object load:622 {
     name R2-12-47-1_load_64;
     parent R2-12-47-1_meter_64;
     phases ABCN;
     voltage_A 7200+0.0j;
     voltage_B -3600-6235j;
     voltage_C -3600+6235j;
     constant_power_A 57732.162+21376.3385j;
     constant_power_B 53204.0986+19680.5617j;
     constant_power_C 59212.5642+21765.9348j;
     nominal_voltage 277.128;
     load_class C;
}

object load:623 {
     name R2-12-47-1_load_65;
     parent R2-12-47-1_meter_65;
     phases ABCN;
     voltage_A 7200+0.0j;
     voltage_B -3600-6235j;
     voltage_C -3600+6235j;
     constant_power_A 8659.8243+3206.4508j;
     constant_power_B 7980.6148+2952.0843j;
     constant_power_C 8881.8846+3264.8902j;
     nominal_voltage 277.128;
     load_class C;
}

object load:624 {
     name R2-12-47-1_load_66;
     parent R2-12-47-1_meter_66;
     phases ABCN;
     voltage_A 7200+0.0j;
     voltage_B -3600-6235j;
     voltage_C -3600+6235j;
     constant_power_A 0+0j;
     constant_power_B 0+0j;
     constant_power_C 3552.7539+1305.9561j;
     nominal_voltage 277.128;
     load_class C;
}

object load:625 {
     name R2-12-47-1_load_67;
     parent R2-12-47-1_meter_67;
     phases ABCN;
     voltage_A 7200+0.0j;
     voltage_B -3600-6235j;
     voltage_C -3600+6235j;
     constant_power_A 8659.8243+3206.4508j;
     constant_power_B 7980.6148+2952.0843j;
     constant_power_C 8881.8846+3264.8902j;
     nominal_voltage 277.128;
     load_class C;
}

object load:626 {
     name R2-12-47-1_load_68;
     parent R2-12-47-1_meter_68;
     phases AN;
     voltage_A 7200+0.0j;
     constant_power_A 34639.2972+12825.8031j;
     nominal_voltage 277.128;
     load_class C;
}

object load:627 {
     name R2-12-47-1_load_69;
     parent R2-12-47-1_meter_69;
     phases ABCN;
     voltage_A 7200+0.0j;
     voltage_B -3600-6235j;
     voltage_C -3600+6235j;
     constant_power_A 34639.2972+12825.8031j;
     constant_power_B 31922.4591+11808.337j;
     constant_power_C 35527.5385+13059.5609j;
     nominal_voltage 277.128;
     load_class C;
}

object load:628 {
     name R2-12-47-1_load_70;
     parent R2-12-47-1_meter_70;
     phases ABCN;
     voltage_A 7200+0.0j;
     voltage_B -3600-6235j;
     voltage_C -3600+6235j;
     constant_power_A 86598.2431+32064.5078j;
     constant_power_B 79806.1478+29520.8425j;
     constant_power_C 88818.8463+32648.9022j;
     nominal_voltage 277.128;
     load_class C;
}

object load:629 {
     name R2-12-47-1_load_71;
     parent R2-12-47-1_meter_71;
     phases ABCN;
     voltage_A 7200+0.0j;
     voltage_B -3600-6235j;
     voltage_C -3600+6235j;
     constant_power_A 8659.8243+3206.4508j;
     constant_power_B 7980.6148+2952.0843j;
     constant_power_C 8881.8846+3264.8902j;
     nominal_voltage 277.128;
     load_class C;
}

object load:630 {
     name R2-12-47-1_load_72;
     parent R2-12-47-1_meter_72;
     phases ABCN;
     voltage_A 7200+0.0j;
     voltage_B -3600-6235j;
     voltage_C -3600+6235j;
     constant_power_A 8659.8243+3206.4508j;
     constant_power_B 7980.6148+2952.0843j;
     constant_power_C 8881.8846+3264.8902j;
     nominal_voltage 277.128;
     load_class C;
}

object load:631 {
     name R2-12-47-1_load_73;
     parent R2-12-47-1_meter_73;
     phases ABCN;
     voltage_A 7200+0.0j;
     voltage_B -3600-6235j;
     voltage_C -3600+6235j;
     constant_power_A 1731.9649+641.2902j;
     constant_power_B 0+0j;
     constant_power_C 0+0j;
     nominal_voltage 277.128;
     load_class C;
}

object load:632 {
     name R2-12-47-1_load_74;
     parent R2-12-47-1_meter_74;
     phases ABCN;
     voltage_A 7200+0.0j;
     voltage_B -3600-6235j;
     voltage_C -3600+6235j;
     constant_power_A 17319.6486+6412.9016j;
     constant_power_B 0+0j;
     constant_power_C 0+0j;
     nominal_voltage 277.128;
     load_class C;
}

object load:633 {
     name R2-12-47-1_load_75;
     parent R2-12-47-1_meter_75;
     phases ABCN;
     voltage_A 7200+0.0j;
     voltage_B -3600-6235j;
     voltage_C -3600+6235j;
     constant_power_A 8659.8243+3206.4508j;
     constant_power_B 0+0j;
     constant_power_C 0+0j;
     nominal_voltage 277.128;
     load_class C;
}

object load:634 {
     name R2-12-47-1_load_76;
     parent R2-12-47-1_meter_76;
     phases ABCN;
     voltage_A 7200+0.0j;
     voltage_B -3600-6235j;
     voltage_C -3600+6235j;
     constant_power_A 17319.6486+6412.9016j;
     constant_power_B 0+0j;
     constant_power_C 0+0j;
     nominal_voltage 277.128;
     load_class C;
}

object load:635 {
     name R2-12-47-1_load_77;
     parent R2-12-47-1_meter_77;
     phases ABCN;
     voltage_A 7200+0.0j;
     voltage_B -3600-6235j;
     voltage_C -3600+6235j;
     constant_power_A 57847.6264+21419.0912j;
     constant_power_B 0+0j;
     constant_power_C 0+0j;
     nominal_voltage 277.128;
     load_class C;
}

object load:636 {
     name R2-12-47-1_load_78;
     parent R2-12-47-1_meter_78;
     phases ABCN;
     voltage_A 7200+0.0j;
     voltage_B -3600-6235j;
     voltage_C -3600+6235j;
     constant_power_A 5195.8946+1923.8705j;
     constant_power_B 4788.3689+1771.2506j;
     constant_power_C 5329.1308+1958.9341j;
     nominal_voltage 277.128;
     load_class C;
}

object load:637 {
     name R2-12-47-1_load_79;
     parent R2-12-47-1_meter_79;
     phases BN;
     voltage_B -3600-6235j;
     constant_power_B 4788.3689+1771.2506j;
     nominal_voltage 277.128;
     load_class C;
}

object load:638 {
     name R2-12-47-1_load_80;
     parent R2-12-47-1_meter_80;
     phases ABCN;
     voltage_A 7200+0.0j;
     voltage_B -3600-6235j;
     voltage_C -3600+6235j;
     constant_power_A 8659.8243+3206.4508j;
     constant_power_B 7980.6148+2952.0843j;
     constant_power_C 8881.8846+3264.8902j;
     nominal_voltage 277.128;
     load_class C;
}

object load:639 {
     name R2-12-47-1_load_81;
     parent R2-12-47-1_meter_81;
     phases ABCN;
     voltage_A 7200+0.0j;
     voltage_B -3600-6235j;
     voltage_C -3600+6235j;
     constant_power_A 25979.4729+9619.3523j;
     constant_power_B 23941.8444+8856.2528j;
     constant_power_C 26645.6539+9794.6706j;
     nominal_voltage 277.128;
     load_class C;
}

object load:640 {
     name R2-12-47-1_load_82;
     parent R2-12-47-1_meter_82;
     phases ABCN;
     voltage_A 7200+0.0j;
     voltage_B -3600-6235j;
     voltage_C -3600+6235j;
     constant_power_A 288660.6947+106881.6499j;
     constant_power_B 266020.3864+98402.7691j;
     constant_power_C 296062.7024+108829.6304j;
     nominal_voltage 277.128;
     load_class C;
}

object meter:914 {
     name R2-12-47-1_meter_1;
     phases AN;
     voltage_A 7200+0.0j;
     nominal_voltage 277.128;
}

object meter:915 {
     name R2-12-47-1_meter_2;
     phases BN;
     voltage_B -3600-6235j;
     nominal_voltage 277.128;
}

object meter:916 {
     name R2-12-47-1_meter_3;
     phases AN;
     voltage_A 7200+0.0j;
     nominal_voltage 277.128;
}

object meter:917 {
     name R2-12-47-1_meter_4;
     phases BN;
     voltage_B -3600-6235j;
     nominal_voltage 277.128;
}

object meter:918 {
     name R2-12-47-1_meter_5;
     phases ABCN;
     voltage_A 7200+0.0j;
     voltage_B -3600-6235j;
     voltage_C -3600+6235j;
     nominal_voltage 277.128;
}

object meter:919 {
     name R2-12-47-1_meter_6;
     phases ABCN;
     voltage_A 7200+0.0j;
     voltage_B -3600-6235j;
     voltage_C -3600+6235j;
     nominal_voltage 277.128;
}

object meter:920 {
     name R2-12-47-1_meter_7;
     phases ABCN;
     voltage_A 7200+0.0j;
     voltage_B -3600-6235j;
     voltage_C -3600+6235j;
     nominal_voltage 277.128;
}

object meter:921 {
     name R2-12-47-1_meter_8;
     phases ABCN;
     voltage_A 7200+0.0j;
     voltage_B -3600-6235j;
     voltage_C -3600+6235j;
     nominal_voltage 277.128;
}

object meter:922 {
     name R2-12-47-1_meter_9;
     phases ABCN;
     voltage_A 7200+0.0j;
     voltage_B -3600-6235j;
     voltage_C -3600+6235j;
     nominal_voltage 277.128;
}

object meter:923 {
     name R2-12-47-1_meter_10;
     phases ABCN;
     voltage_A 7200+0.0j;
     voltage_B -3600-6235j;
     voltage_C -3600+6235j;
     nominal_voltage 277.128;
}

object meter:924 {
     name R2-12-47-1_meter_11;
     phases ABCN;
     voltage_A 7200+0.0j;
     voltage_B -3600-6235j;
     voltage_C -3600+6235j;
     nominal_voltage 277.128;
}

object meter:925 {
     name R2-12-47-1_meter_12;
     phases ABCN;
     voltage_A 7200+0.0j;
     voltage_B -3600-6235j;
     voltage_C -3600+6235j;
     nominal_voltage 277.128;
}

object meter:926 {
     name R2-12-47-1_meter_13;
     phases ABCN;
     voltage_A 7200+0.0j;
     voltage_B -3600-6235j;
     voltage_C -3600+6235j;
     nominal_voltage 277.128;
}

object meter:927 {
     name R2-12-47-1_meter_14;
     phases ABCN;
     voltage_A 7200+0.0j;
     voltage_B -3600-6235j;
     voltage_C -3600+6235j;
     nominal_voltage 277.128;
}

object meter:928 {
     name R2-12-47-1_meter_15;
     phases ABCN;
     voltage_A 7200+0.0j;
     voltage_B -3600-6235j;
     voltage_C -3600+6235j;
     nominal_voltage 277.128;
}

object meter:929 {
     name R2-12-47-1_meter_16;
     phases ABCN;
     voltage_A 7200+0.0j;
     voltage_B -3600-6235j;
     voltage_C -3600+6235j;
     nominal_voltage 277.128;
}

object meter:930 {
     name R2-12-47-1_meter_17;
     phases ABCN;
     voltage_A 7200+0.0j;
     voltage_B -3600-6235j;
     voltage_C -3600+6235j;
     nominal_voltage 277.128;
}

object meter:931 {
     name R2-12-47-1_meter_18;
     phases ABCN;
     voltage_A 7200+0.0j;
     voltage_B -3600-6235j;
     voltage_C -3600+6235j;
     nominal_voltage 277.128;
}

object meter:932 {
     name R2-12-47-1_meter_19;
     phases ABCN;
     voltage_A 7200+0.0j;
     voltage_B -3600-6235j;
     voltage_C -3600+6235j;
     nominal_voltage 277.128;
}

object meter:933 {
     name R2-12-47-1_meter_20;
     phases ABCN;
     voltage_A 7200+0.0j;
     voltage_B -3600-6235j;
     voltage_C -3600+6235j;
     nominal_voltage 277.128;
}

object meter:934 {
     name R2-12-47-1_meter_21;
     phases ABCN;
     voltage_A 7200+0.0j;
     voltage_B -3600-6235j;
     voltage_C -3600+6235j;
     nominal_voltage 277.128;
}

object meter:935 {
     name R2-12-47-1_meter_22;
     phases AN;
     voltage_A 7200+0.0j;
     nominal_voltage 277.128;
}

object meter:936 {
     name R2-12-47-1_meter_23;
     phases AN;
     voltage_A 7200+0.0j;
     nominal_voltage 277.128;
}

object meter:937 {
     name R2-12-47-1_meter_24;
     phases ABCN;
     voltage_A 7200+0.0j;
     voltage_B -3600-6235j;
     voltage_C -3600+6235j;
     nominal_voltage 277.128;
}

object meter:938 {
     name R2-12-47-1_meter_25;
     phases ABCN;
     voltage_A 7200+0.0j;
     voltage_B -3600-6235j;
     voltage_C -3600+6235j;
     nominal_voltage 277.128;
}

object meter:939 {
     name R2-12-47-1_meter_26;
     phases ABCN;
     voltage_A 7200+0.0j;
     voltage_B -3600-6235j;
     voltage_C -3600+6235j;
     nominal_voltage 277.128;
}

object meter:940 {
     name R2-12-47-1_meter_27;
     phases ABCN;
     voltage_A 7200+0.0j;
     voltage_B -3600-6235j;
     voltage_C -3600+6235j;
     nominal_voltage 277.128;
}

object meter:941 {
     name R2-12-47-1_meter_28;
     phases AN;
     voltage_A 7200+0.0j;
     nominal_voltage 277.128;
}

object meter:942 {
     name R2-12-47-1_meter_29;
     phases AN;
     voltage_A 7200+0.0j;
     nominal_voltage 277.128;
}

object meter:943 {
     name R2-12-47-1_meter_30;
     phases ABCN;
     voltage_A 7200+0.0j;
     voltage_B -3600-6235j;
     voltage_C -3600+6235j;
     nominal_voltage 277.128;
}

object meter:944 {
     name R2-12-47-1_meter_31;
     phases ABCN;
     voltage_A 7200+0.0j;
     voltage_B -3600-6235j;
     voltage_C -3600+6235j;
     nominal_voltage 277.128;
}

object meter:945 {
     name R2-12-47-1_meter_32;
     phases ABCN;
     voltage_A 7200+0.0j;
     voltage_B -3600-6235j;
     voltage_C -3600+6235j;
     nominal_voltage 277.128;
}

object meter:946 {
     name R2-12-47-1_meter_33;
     phases ABCN;
     voltage_A 7200+0.0j;
     voltage_B -3600-6235j;
     voltage_C -3600+6235j;
     nominal_voltage 277.128;
}

object meter:947 {
     name R2-12-47-1_meter_34;
     phases ABCN;
     voltage_A 7200+0.0j;
     voltage_B -3600-6235j;
     voltage_C -3600+6235j;
     nominal_voltage 277.128;
}

object meter:948 {
     name R2-12-47-1_meter_35;
     phases ABCN;
     voltage_A 7200+0.0j;
     voltage_B -3600-6235j;
     voltage_C -3600+6235j;
     nominal_voltage 277.128;
}

object meter:949 {
     name R2-12-47-1_meter_36;
     phases CN;
     voltage_C -3600+6235j;
     nominal_voltage 277.128;
}

object meter:950 {
     name R2-12-47-1_meter_37;
     phases CN;
     voltage_C -3600+6235j;
     nominal_voltage 277.128;
}

object meter:951 {
     name R2-12-47-1_meter_38;
     phases ABCN;
     voltage_A 7200+0.0j;
     voltage_B -3600-6235j;
     voltage_C -3600+6235j;
     nominal_voltage 277.128;
}

object meter:952 {
     name R2-12-47-1_meter_39;
     phases ABCN;
     voltage_A 7200+0.0j;
     voltage_B -3600-6235j;
     voltage_C -3600+6235j;
     nominal_voltage 277.128;
}

object meter:953 {
     name R2-12-47-1_meter_40;
     phases ABCN;
     voltage_A 7200+0.0j;
     voltage_B -3600-6235j;
     voltage_C -3600+6235j;
     nominal_voltage 277.128;
}

object meter:954 {
     name R2-12-47-1_meter_41;
     phases ABCN;
     voltage_A 7200+0.0j;
     voltage_B -3600-6235j;
     voltage_C -3600+6235j;
     nominal_voltage 277.128;
}

object meter:955 {
     name R2-12-47-1_meter_42;
     phases ABCN;
     voltage_A 7200+0.0j;
     voltage_B -3600-6235j;
     voltage_C -3600+6235j;
     nominal_voltage 277.128;
}

object meter:956 {
     name R2-12-47-1_meter_43;
     phases ABCN;
     voltage_A 7200+0.0j;
     voltage_B -3600-6235j;
     voltage_C -3600+6235j;
     nominal_voltage 277.128;
}

object meter:957 {
     name R2-12-47-1_meter_44;
     phases ABCN;
     voltage_A 7200+0.0j;
     voltage_B -3600-6235j;
     voltage_C -3600+6235j;
     nominal_voltage 277.128;
}

object meter:958 {
     name R2-12-47-1_meter_45;
     phases ABCN;
     voltage_A 7200+0.0j;
     voltage_B -3600-6235j;
     voltage_C -3600+6235j;
     nominal_voltage 277.128;
}

object meter:959 {
     name R2-12-47-1_meter_46;
     phases ABCN;
     voltage_A 7200+0.0j;
     voltage_B -3600-6235j;
     voltage_C -3600+6235j;
     nominal_voltage 277.128;
}

object meter:960 {
     name R2-12-47-1_meter_47;
     phases ABCN;
     voltage_A 7200+0.0j;
     voltage_B -3600-6235j;
     voltage_C -3600+6235j;
     nominal_voltage 277.128;
}

object meter:961 {
     name R2-12-47-1_meter_48;
     phases CN;
     voltage_C -3600+6235j;
     nominal_voltage 277.128;
}

object meter:962 {
     name R2-12-47-1_meter_49;
     phases ABCN;
     voltage_A 7200+0.0j;
     voltage_B -3600-6235j;
     voltage_C -3600+6235j;
     nominal_voltage 277.128;
}

object meter:963 {
     name R2-12-47-1_meter_50;
     phases ABCN;
     voltage_A 7200+0.0j;
     voltage_B -3600-6235j;
     voltage_C -3600+6235j;
     nominal_voltage 277.128;
}

object meter:964 {
     name R2-12-47-1_meter_51;
     phases ABCN;
     voltage_A 7200+0.0j;
     voltage_B -3600-6235j;
     voltage_C -3600+6235j;
     nominal_voltage 277.128;
}

object meter:965 {
     name R2-12-47-1_meter_52;
     phases ABN;
     voltage_A 7200+0.0j;
     voltage_B -3600-6235j;
     nominal_voltage 277.128;
}

object meter:966 {
     name R2-12-47-1_meter_53;
     phases ABCN;
     voltage_A 7200+0.0j;
     voltage_B -3600-6235j;
     voltage_C -3600+6235j;
     nominal_voltage 277.128;
}

object meter:967 {
     name R2-12-47-1_meter_54;
     phases ABCN;
     voltage_A 7200+0.0j;
     voltage_B -3600-6235j;
     voltage_C -3600+6235j;
     nominal_voltage 277.128;
}

object meter:968 {
     name R2-12-47-1_meter_55;
     phases ABCN;
     voltage_A 7200+0.0j;
     voltage_B -3600-6235j;
     voltage_C -3600+6235j;
     nominal_voltage 277.128;
}

object meter:969 {
     name R2-12-47-1_meter_56;
     phases ABCN;
     voltage_A 7200+0.0j;
     voltage_B -3600-6235j;
     voltage_C -3600+6235j;
     nominal_voltage 277.128;
}

object meter:970 {
     name R2-12-47-1_meter_57;
     phases ABCN;
     voltage_A 7200+0.0j;
     voltage_B -3600-6235j;
     voltage_C -3600+6235j;
     nominal_voltage 277.128;
}

object meter:971 {
     name R2-12-47-1_meter_58;
     phases BCN;
     voltage_B -3600-6235j;
     voltage_C -3600+6235j;
     nominal_voltage 277.128;
}

object meter:972 {
     name R2-12-47-1_meter_59;
     phases ABCN;
     voltage_A 7200+0.0j;
     voltage_B -3600-6235j;
     voltage_C -3600+6235j;
     nominal_voltage 277.128;
}

object meter:973 {
     name R2-12-47-1_meter_60;
     phases ABCN;
     voltage_A 7200+0.0j;
     voltage_B -3600-6235j;
     voltage_C -3600+6235j;
     nominal_voltage 277.128;
}

object meter:974 {
     name R2-12-47-1_meter_61;
     phases CN;
     voltage_C -3600+6235j;
     nominal_voltage 277.128;
}

object meter:975 {
     name R2-12-47-1_meter_62;
     phases ABCN;
     voltage_A 7200+0.0j;
     voltage_B -3600-6235j;
     voltage_C -3600+6235j;
     nominal_voltage 277.128;
}

object meter:976 {
     name R2-12-47-1_meter_63;
     phases ABCN;
     voltage_A 7200+0.0j;
     voltage_B -3600-6235j;
     voltage_C -3600+6235j;
     nominal_voltage 277.128;
}

object meter:977 {
     name R2-12-47-1_meter_64;
     phases ABCN;
     voltage_A 7200+0.0j;
     voltage_B -3600-6235j;
     voltage_C -3600+6235j;
     nominal_voltage 277.128;
}

object meter:978 {
     name R2-12-47-1_meter_65;
     phases ABCN;
     voltage_A 7200+0.0j;
     voltage_B -3600-6235j;
     voltage_C -3600+6235j;
     nominal_voltage 277.128;
}

object meter:979 {
     name R2-12-47-1_meter_66;
     phases ABCN;
     voltage_A 7200+0.0j;
     voltage_B -3600-6235j;
     voltage_C -3600+6235j;
     nominal_voltage 277.128;
}

object meter:980 {
     name R2-12-47-1_meter_67;
     phases ABCN;
     voltage_A 7200+0.0j;
     voltage_B -3600-6235j;
     voltage_C -3600+6235j;
     nominal_voltage 277.128;
}

object meter:981 {
     name R2-12-47-1_meter_68;
     phases AN;
     voltage_A 7200+0.0j;
     nominal_voltage 277.128;
}

object meter:982 {
     name R2-12-47-1_meter_69;
     phases ABCN;
     voltage_A 7200+0.0j;
     voltage_B -3600-6235j;
     voltage_C -3600+6235j;
     nominal_voltage 277.128;
}

object meter:983 {
     name R2-12-47-1_meter_70;
     phases ABCN;
     voltage_A 7200+0.0j;
     voltage_B -3600-6235j;
     voltage_C -3600+6235j;
     nominal_voltage 277.128;
}

object meter:984 {
     name R2-12-47-1_meter_71;
     phases ABCN;
     voltage_A 7200+0.0j;
     voltage_B -3600-6235j;
     voltage_C -3600+6235j;
     nominal_voltage 277.128;
}

object meter:985 {
     name R2-12-47-1_meter_72;
     phases ABCN;
     voltage_A 7200+0.0j;
     voltage_B -3600-6235j;
     voltage_C -3600+6235j;
     nominal_voltage 277.128;
}

object meter:986 {
     name R2-12-47-1_meter_73;
     phases ABCN;
     voltage_A 7200+0.0j;
     voltage_B -3600-6235j;
     voltage_C -3600+6235j;
     nominal_voltage 277.128;
}

object meter:987 {
     name R2-12-47-1_meter_74;
     phases ABCN;
     voltage_A 7200+0.0j;
     voltage_B -3600-6235j;
     voltage_C -3600+6235j;
     nominal_voltage 277.128;
}

object meter:988 {
     name R2-12-47-1_meter_75;
     phases ABCN;
     voltage_A 7200+0.0j;
     voltage_B -3600-6235j;
     voltage_C -3600+6235j;
     nominal_voltage 277.128;
}

object meter:989 {
     name R2-12-47-1_meter_76;
     phases ABCN;
     voltage_A 7200+0.0j;
     voltage_B -3600-6235j;
     voltage_C -3600+6235j;
     nominal_voltage 277.128;
}

object meter:990 {
     name R2-12-47-1_meter_77;
     phases ABCN;
     voltage_A 7200+0.0j;
     voltage_B -3600-6235j;
     voltage_C -3600+6235j;
     nominal_voltage 277.128;
}

object meter:991 {
     name R2-12-47-1_meter_78;
     phases ABCN;
     voltage_A 7200+0.0j;
     voltage_B -3600-6235j;
     voltage_C -3600+6235j;
     nominal_voltage 277.128;
}

object meter:992 {
     name R2-12-47-1_meter_79;
     phases BN;
     voltage_B -3600-6235j;
     nominal_voltage 277.128;
}

object meter:993 {
     name R2-12-47-1_meter_80;
     phases ABCN;
     voltage_A 7200+0.0j;
     voltage_B -3600-6235j;
     voltage_C -3600+6235j;
     nominal_voltage 277.128;
}

object meter:994 {
     name R2-12-47-1_meter_81;
     phases ABCN;
     voltage_A 7200+0.0j;
     voltage_B -3600-6235j;
     voltage_C -3600+6235j;
     nominal_voltage 277.128;
}

object meter:995 {
     name R2-12-47-1_meter_82;
     phases ABCN;
     voltage_A 7200+0.0j;
     voltage_B -3600-6235j;
     voltage_C -3600+6235j;
     nominal_voltage 277.128;
}

// Meter at feeder
object meter:1825 {
     name R2-12-47-1_meter_83;
     phases ABCN;
     nominal_voltage 7200;
     voltage_A 7200+0.0j;
     voltage_B -3600-6235j;
     voltage_C -3600+6235j;
}

object node:72 {
     name R2-12-47-1_node_1;
     phases ABCN;
     voltage_A 7200+0.0j;
     voltage_B -3600-6235j;
     voltage_C -3600+6235j;
     nominal_voltage 7200;
}

object node:73 {
     name R2-12-47-1_node_2;
     phases ABCN;
     voltage_A 7200+0.0j;
     voltage_B -3600-6235j;
     voltage_C -3600+6235j;
     nominal_voltage 7200;
}

object node:74 {
     name R2-12-47-1_node_3;
     phases ABCN;
     voltage_A 7200+0.0j;
     voltage_B -3600-6235j;
     voltage_C -3600+6235j;
     nominal_voltage 7200;
}

object node:75 {
     name R2-12-47-1_node_4;
     phases AN;
     voltage_A 7200+0.0j;
     nominal_voltage 7200;
}

object node:76 {
     name R2-12-47-1_node_5;
     phases AN;
     voltage_A 7200+0.0j;
     nominal_voltage 7200;
}

object node:77 {
     name R2-12-47-1_node_6;
     phases ABCN;
     voltage_A 7200+0.0j;
     voltage_B -3600-6235j;
     voltage_C -3600+6235j;
     nominal_voltage 7200;
}

object node:78 {
     name R2-12-47-1_node_7;
     phases ABCN;
     voltage_A 7200+0.0j;
     voltage_B -3600-6235j;
     voltage_C -3600+6235j;
     nominal_voltage 7200;
}

object node:79 {
     name R2-12-47-1_node_8;
     phases ABCN;
     voltage_A 7200+0.0j;
     voltage_B -3600-6235j;
...